LAMMPS (9 Nov 2016)
# =====================================================================
# ===== Matveev Gennadiy 29.09.2017...mail: geno.matveev@gmail.com ====
# ==================== Aluminum crystal melting =======================
# =====================================================================

# _3 закомментирована строка "mom no rot yes dist uniform"
# _3 увеличена скорость на 1 порядок

units        	metal
dimension    	3
boundary     	p p p
lattice      	fcc 3.9860 orient x 1 0 0 orient y 0 1 0 orient z 0 0 1
Lattice spacing in x,y,z = 3.986 3.986 3.986
region   	    box block 0 6.5 0 6.5 0 6.5
create_box	  1 box
Created orthogonal box = (0 0 0) to (25.909 25.909 25.909)
create_atoms	1 box
Created 1099 atoms
mass	        * 26.981539
pair_style	  eam
pair_coeff	  * * /home/scala/mylammps/potentials/Al_jnp.eam
Reading potential file /home/scala/mylammps/potentials/Al_jnp.eam with DATE: 2007-06-11
#neighbor     8.0 bin

variable	    T equal 50
variable	    run equal 120000
variable	    thermo equal 10000
variable      Pe equal pe
variable      Vol equal vol
variable      Temp equal temp

velocity     	all create 50 4234280 mom no rot yes dist uniform

dump         	1 all xyz 1099 return/alumin.xyz
fix          	1 all npt temp $T $T 0.01 iso 0 0 0.1 #Tdump - время, на сколько быстро ослабляется температура
fix          	1 all npt temp 50 $T 0.01 iso 0 0 0.1
fix          	1 all npt temp 50 50 0.01 iso 0 0 0.1

#========= RDF =========
compute      	q all rdf 70
fix           2 all ave/time 1 50 120000 c_q[1] c_q[2] c_q[3] file return/RDF/RDF_50.rdf mode vector

#======= Save file Pe/Temp and Vol/Temp ========

#========= run =========
thermo		    10000
run 		      120000
  2 neighbor list requests
  update every 1 steps, delay 10 steps, check yes
Step Temp E_pair E_mol TotEng Press Volume
0           50   -3264.6335            0   -3257.5372     95678.07    17392.097
Averages over the last 6 of 12 rows, steps 60000 to 110000:
Temp E_pair E_mol TotEng Press Volume
49.6064 -3690.22 0 -3683.18 -165.512 17627.1
-3690.911565366 50.2469436599848
17618.4023447825 50.2469436599848
Loop time of 579.189 on 6 procs for 120000 steps with 1099 atoms

unfix 		    1
unfix 		    2
run 		      1
Step Temp E_pair E_mol TotEng Press
120000    50.246944   -3690.9116            0   -3683.7801   -92.378017
Loop time of 0.00530091 on 6 procs for 1 steps with 1099 atoms

# ============
# == step 2 ==
# ============

variable	    T equal 150
velocity     	all create 150 4234280 mom no rot yes dist uniform
fix          	1 all npt temp $T $T 0.001 iso 0 0 0.1
fix          	1 all npt temp 150 $T 0.001 iso 0 0 0.1
fix          	1 all npt temp 150 150 0.001 iso 0 0 0.1
thermo		    10000
run 		      120000
Step Temp E_pair E_mol TotEng Press Volume
120001          150   -3690.9116            0   -3669.6224    765.93513    17618.402
Averages over the last 6 of 12 rows, steps 180000 to 230000:
Temp E_pair E_mol TotEng Press Volume
149.482 -3676.64 0 -3655.42 -265.868 17723.1
-3676.79665195613 153.7844776654
17744.7447751236 153.7844776654
Loop time of 526.986 on 6 procs for 120000 steps with 1099 atoms

unfix 		    1
#unfix 		    2
run 		      1
Step Temp E_pair E_mol TotEng Press
240001    149.99237   -3676.7595            0   -3655.4715   -945.46646
Loop time of 0.00563191 on 6 procs for 1 steps with 1099 atoms

# ============
# == step 3 ==
# ============

variable	    T equal 250
velocity     	all create 250 4234280 mom no rot yes dist uniform
fix          	1 all npt temp $T $T 0.001 iso 0 0 0.1
fix          	1 all npt temp 250 $T 0.001 iso 0 0 0.1
fix          	1 all npt temp 250 250 0.001 iso 0 0 0.1
thermo		    10000
run 		      120000
Step Temp E_pair E_mol TotEng Press Volume
240002          250   -3676.7595            0   -3641.2776   -90.641481    17735.442
Averages over the last 6 of 12 rows, steps 300000 to 350000:
Temp E_pair E_mol TotEng Press Volume
245.602 -3661.5 0 -3626.65 33.45 17826.5
-3662.82851259107 240.154048134954
17845.0860714962 240.154048134954
Loop time of 530.271 on 6 procs for 120000 steps with 1099 atoms

unfix 		    1
#unfix 		    2
run 		      1
Step Temp E_pair E_mol TotEng Press
360002    255.64894   -3662.6802            0   -3626.3966   -1625.5502
Loop time of 0.00448055 on 6 procs for 1 steps with 1099 atoms

# ============
# == step 4 ==
# ============

variable	    T equal 350
velocity     	all create 350 4234280 mom no rot yes dist uniform
fix          	1 all npt temp $T $T 0.001 iso 0 0 0.1
fix          	1 all npt temp 350 $T 0.001 iso 0 0 0.1
fix          	1 all npt temp 350 350 0.001 iso 0 0 0.1
thermo		    10000
run 		      120000
Step Temp E_pair E_mol TotEng Press Volume
360003          350   -3662.6802            0   -3613.0055   -824.52673    17856.141
Averages over the last 6 of 12 rows, steps 420000 to 470000:
Temp E_pair E_mol TotEng Press Volume
346.329 -3651.33 0 -3602.17 52.4617 17891
-3651.66798655312 360.549577198201
17873.189089235 360.549577198201
Loop time of 563.049 on 6 procs for 120000 steps with 1099 atoms

unfix 		    1
#unfix 		    2
run 		      1
Step Temp E_pair E_mol TotEng Press
480003    342.97067    -3651.902            0    -3603.225   -951.13544
Loop time of 0.0106228 on 6 procs for 1 steps with 1099 atoms

# ============
# == step 5 ==
# ============

variable	    T equal 450
velocity     	all create 450 4234280 mom no rot yes dist uniform
fix          	1 all npt temp $T $T 0.001 iso 0 0 0.1
fix          	1 all npt temp 450 $T 0.001 iso 0 0 0.1
fix          	1 all npt temp 450 450 0.001 iso 0 0 0.1
thermo		    10000
run 		      120000
Step Temp E_pair E_mol TotEng Press Volume
480004          450    -3651.902            0   -3588.0346   -44.851856    17902.957
Averages over the last 6 of 12 rows, steps 540000 to 590000:
Temp E_pair E_mol TotEng Press Volume
450.08 -3639.08 0 -3575.2 241.608 17979.9
-3639.13917946698 460.049691646907
17970.3100152854 460.049691646907
Loop time of 517.709 on 6 procs for 120000 steps with 1099 atoms

unfix 		    1
#unfix 		    2
run 		      1
Step Temp E_pair E_mol TotEng Press
600004    476.69195   -3639.3108            0    -3571.655   -561.40149
Loop time of 0.00487373 on 6 procs for 1 steps with 1099 atoms

# ============
# == step 6 ==
# ============

variable	    T equal 550
velocity     	all create 550 4234280 mom no rot yes dist uniform
fix          	1 all npt temp $T $T 0.001 iso 0 0 0.1
fix          	1 all npt temp 550 $T 0.001 iso 0 0 0.1
fix          	1 all npt temp 550 550 0.001 iso 0 0 0.1
fix           2 all ave/time 1 550 120000 c_q[1] c_q[2] c_q[3] file return/RDF/RDF_550.rdf mode vector
thermo		    10000
run 		      120000
Step Temp E_pair E_mol TotEng Press Volume
600005          550   -3639.3108            0   -3561.2506    56.018413    17999.363
Averages over the last 6 of 12 rows, steps 660000 to 710000:
Temp E_pair E_mol TotEng Press Volume
541.294 -3621.08 0 -3544.26 -574.874 18131.1
-3620.12409507187 568.998918752274
18192.8409424901 568.998918752274
Loop time of 559.326 on 6 procs for 120000 steps with 1099 atoms

unfix 		    1
unfix 		    2
run 		      1
Step Temp E_pair E_mol TotEng Press
720005    581.11549    -3619.613            0   -3537.1367   -1172.4236
Loop time of 0.00420169 on 6 procs for 1 steps with 1099 atoms

# ============
# == step 7 ==
# ============

variable	    T equal 650
velocity     	all create 650 4234280 mom no rot yes dist uniform
fix          	1 all npt temp $T $T 0.001 iso 0 0 0.1
fix          	1 all npt temp 650 $T 0.001 iso 0 0 0.1
fix          	1 all npt temp 650 650 0.001 iso 0 0 0.1
thermo		    10000
run 		      120000
Step Temp E_pair E_mol TotEng Press Volume
720006          650    -3619.613            0     -3527.36   -597.53198    18164.426
Averages over the last 6 of 12 rows, steps 780000 to 830000:
Temp E_pair E_mol TotEng Press Volume
649.034 -3601.8 0 -3509.69 1018.07 18248
-3604.97849832986 663.161329030097
18208.8728657901 663.161329030097
Loop time of 536.531 on 6 procs for 120000 steps with 1099 atoms

unfix 		    1
#unfix 		    2
run 		      1
Step Temp E_pair E_mol TotEng Press
840006    642.24181   -3604.7996            0   -3513.6477    785.23616
Loop time of 0.00609582 on 6 procs for 1 steps with 1099 atoms

# ============
# == step 8 ==
# ============

variable	    T equal 750
velocity     	all create 750 4234280 mom no rot yes dist uniform
fix          	1 all npt temp $T $T 0.001 iso 0 0 0.1
fix          	1 all npt temp 750 $T 0.001 iso 0 0 0.1
fix          	1 all npt temp 750 750 0.001 iso 0 0 0.1
thermo		    10000
run 		      120000
Step Temp E_pair E_mol TotEng Press Volume
840007          750   -3604.7996            0   -3498.3538    1681.2935    18230.583
Averages over the last 6 of 12 rows, steps 900000 to 950000:
Temp E_pair E_mol TotEng Press Volume
762.061 -3584.03 0 -3475.88 300.5 18401.6
-3590.0051033248 776.838528238663
18361.5610803055 776.838528238663
Loop time of 509.945 on 6 procs for 120000 steps with 1099 atoms

unfix 		    1
#unfix 		    2
run 		      1
Step Temp E_pair E_mol TotEng Press
960007    727.19747    -3589.785            0   -3486.5756    825.26195
Loop time of 0.00178699 on 6 procs for 1 steps with 1099 atoms

# ============
# == step 9 ==
# ============

variable	    T equal 850
velocity     	all create 850 4234280 mom no rot yes dist uniform
fix          	1 all npt temp $T $T 0.001 iso 0 0 0.1
fix          	1 all npt temp 850 $T 0.001 iso 0 0 0.1
fix          	1 all npt temp 850 850 0.001 iso 0 0 0.1
thermo		    10000
run 		      120000
Step Temp E_pair E_mol TotEng Press Volume
960008          850    -3589.785            0   -3469.1465    1840.2549    18341.311
Averages over the last 6 of 12 rows, steps 1020000 to 1070000:
Temp E_pair E_mol TotEng Press Volume
836.092 -3566.07 0 -3447.4 -608.048 18561.1
-3563.17661445972 828.064863986936
18585.9497403423 828.064863986936
Loop time of 463.25 on 6 procs for 120000 steps with 1099 atoms

unfix 		    1
#unfix 		    2
run 		      1
Step Temp E_pair E_mol TotEng Press
1080008     826.4546   -3562.8925            0   -3445.5957   -4363.2504
Loop time of 0.00231663 on 6 procs for 1 steps with 1099 atoms

# =============
# == step 10 ==
# =============

variable	    T equal 950
velocity     	all create 950 4234280 mom no rot yes dist uniform
fix          	1 all npt temp $T $T 0.001 iso 0 0 0.1
fix          	1 all npt temp 950 $T 0.001 iso 0 0 0.1
fix          	1 all npt temp 950 950 0.001 iso 0 0 0.1
thermo		    10000
run 		      120000
Step Temp E_pair E_mol TotEng Press Volume
1080009          950   -3562.8925            0   -3428.0612   -3360.0638    18669.425
Averages over the last 6 of 12 rows, steps 1140000 to 1190000:
Temp E_pair E_mol TotEng Press Volume
940.187 -3546.68 0 -3413.24 -672.221 18731.9
-3544.54947473418 920.08660408867
18740.928904503 920.08660408867
Loop time of 528.746 on 6 procs for 120000 steps with 1099 atoms

unfix 		    1
#unfix 		    2И ПОЛУЧИТЬ СПЕКТР.
run 		      1
Step Temp E_pair E_mol TotEng Press
1200009    936.61324    -3544.186            0   -3411.2547    4419.4536
Loop time of 0.00392042 on 6 procs for 1 steps with 1099 atoms

# =============
# == step 11 ==
# =============

variable	    T equal 1050
velocity     	all create 1050 4234280 mom no rot yes dist uniform
fix          	1 all npt temp $T $T 0.001 iso 0 0 0.1
fix          	1 all npt temp 1050 $T 0.001 iso 0 0 0.1
fix          	1 all npt temp 1050 1050 0.001 iso 0 0 0.1
fix           2 all ave/time 1 1050 120000 c_q[1] c_q[2] c_q[3] file return/RDF/RDF_1050.rdf mode vector
thermo		    10000
run 		      120000
Step Temp E_pair E_mol TotEng Press Volume
1200010         1050    -3544.186            0   -3395.1619    5342.5093    18621.749
Averages over the last 6 of 12 rows, steps 1260000 to 1310000:
Temp E_pair E_mol TotEng Press Volume
1061.9 -3529.5 0 -3378.78 -620.936 18883.6
-3528.51263314456 1027.16877500218
18891.0223233316 1027.16877500218
Loop time of 601.083 on 6 procs for 120000 steps with 1099 atoms

unfix 		    1
unfix 		    2
run 		      1
Step Temp E_pair E_mol TotEng Press
1320010    1073.8862    -3526.357            0   -3373.9428    10.251577
Loop time of 0.00236396 on 6 procs for 1 steps with 1099 atoms

# =============
# == step 12 ==
# =============

variable	    T equal 1150
velocity     	all create 1150 4234280 mom no rot yes dist uniform
fix          	1 all npt temp $T $T 0.001 iso 0 0 0.1
fix          	1 all npt temp 1150 $T 0.001 iso 0 0 0.1
fix          	1 all npt temp 1150 1150 0.001 iso 0 0 0.1
fix           2 all ave/time 1 1150 120000 c_q[1] c_q[2] c_q[3] file return/RDF/RDF_1150.rdf mode vector
thermo		    10000
run 		      120000
Step Temp E_pair E_mol TotEng Press Volume
1320011         1150    -3526.357            0   -3363.1402    621.02986    18891.479
Averages over the last 6 of 12 rows, steps 1380000 to 1430000:
Temp E_pair E_mol TotEng Press Volume
1146.27 -3417.43 0 -3254.74 -48.8994 19838.8
-3419.68970119503 1117.6061235548
19878.7258209386 1117.6061235548
Loop time of 576.763 on 6 procs for 120000 steps with 1099 atoms

unfix 		    1
unfix 		    2
run 		      1
Step Temp E_pair E_mol TotEng Press
1440011    1175.4103   -3419.7823            0   -3252.9591   -4247.8631
Loop time of 0.0117115 on 6 procs for 1 steps with 1099 atoms

shell         python plot.py
